shortcurrent/test2.m
% data for test case
% (bus#)( volt )( ang )(  p )(  q )(bus type)(是否机组1是0否)(Xd'')

bus=[
   1   1.00  0.0   -0.30  -0.18   1   0   0.000;
   2   1.00  0.0   -0.55  -0.13   1   0   0.000;
   3   1.10  0.0    0.50   0.00   2   1   0.020;
   4   1.05  0.0    0.00   0.00   3   1   0.020];

% b#1 b#2  ( R )( X )( G )( B/2 ) ( tap )

line = [
   1   2 0.10 0.40  0.0 0.01528    0;
   1   4 0.12 0.50  0.0 0.01920    0;
   2   4 0.08 0.40  0.0 0.01413    0;
   3   1 0.00 0.30  0.0 0.0     -1.1];


% 故障参数
% 故障支路首端节点 故障支路末端短路 （距首端距离0-1）
fault = [
   1   2   0];

% 计算参数
% 是否平启动（1为是，0为否）
calcSettings = [
    1];

disp('测试系统：双机四节点测试系统');
disp('故障类型：三相短路故障');
disp('故障点：节点1');
disp('短路电阻：0');
disp('计算类型：平启动');